Circuit: *AE01.15.00.030_sim01.net

.step r=100 c=1e-008
.step r=150 c=1e-008
.step r=200 c=1e-008
.step r=100 c=1.5e-008
.step r=150 c=1.5e-008
.step r=200 c=1.5e-008
.step r=100 c=2e-008
.step r=150 c=2e-008
.step r=200 c=2e-008


Measurement: fc_mag
  step	MIN(mag(v(/out_h,/out_l)))	FROM	TO
     1	(-60.6179dB,0°)	1	1e+008
     2	(-53.2091dB,0°)	1	1e+008
     3	(-67.8659dB,0°)	1	1e+008
     4	(-53.2091dB,0°)	1	1e+008
     5	(-74.6365dB,0°)	1	1e+008
     6	(-52.3801dB,0°)	1	1e+008
     7	(-67.8659dB,0°)	1	1e+008
     8	(-52.3801dB,0°)	1	1e+008
     9	(-78.2208dB,0°)	1	1e+008

Measurement: fc_frec
  step	frequency	at
     1	(104dB,0°)	158489
     2	(100.6dB,0°)	107152
     3	(98dB,0°)	79432.8
     4	(-1.#INFdB,0°)	0
     5	(97dB,0°)	70794.6
     6	(94.4dB,0°)	52480.7
     7	(98dB,0°)	79432.8
     8	(94.4dB,0°)	52480.7
     9	(92dB,0°)	39810.7

Measurement: fc_mag_frec
  step	mag(v(/out_h,/out_l))	at
     1	(-60.6179dB,0°)	158489
     2	(-53.2091dB,0°)	107152
     3	(-67.8659dB,0°)	79432.8
     4	(-1.#INFdB,0°)	0
     5	(-74.6365dB,0°)	70794.6
     6	(-52.3801dB,0°)	52480.7
     7	(-67.8659dB,0°)	79432.8
     8	(-52.3801dB,0°)	52480.7
     9	(-78.2208dB,0°)	39810.7


Date: Sat Jan 15 13:09:12 2022
Total elapsed time: 0.245 seconds.

tnom = 27
temp = 27
method = trap
totiter = 0
traniter = 0
tranpoints = 0
accept = 0
rejected = 0
matrix size = 5
fillins = 1
solver = Normal

